tests/data/power_flow/three-winding-transformer/asym_output_batch.json
{
  "version": "1.0",
  "type": "asym_output",
  "is_batch": true,
  "attributes": {},
  "data": [
    {
      "node": [
        {
          "id": 1,
          "energized": 1,
          "u_pu": [
            1.0,
            1.0,
            1.0
          ],
          "u": [
            79674.33714816834,
            79674.33714816834,
            79674.33714816834
          ],
          "u_angle": [
            0.0,
            -2.094395102393195,
            2.094395102393195
          ]
        },
        {
          "id": 2,
          "energized": 1,
          "u_pu": [
            1.07009926,
            1.07009926,
            1.07009926
          ],
          "u": [
            42629.72443567,
            42629.72443567,
            42629.72443567
          ],
          "u_angle": [
            0.523598775598299,
            -1.570796326794897,
            2.617993877991494
          ]
        },
        {
          "id": 3,
          "energized": 1,
          "u_pu": [
            1.07009926,
            1.07009926,
            1.07009926
          ],
          "u": [
            8525.94488713,
            8525.94488713,
            8525.94488713
          ],
          "u_angle": [
            0.523598775598299,
            -1.570796326794897,
            2.617993877991494
          ]
        }
      ],
      "three_winding_transformer": [
        {
          "id": 4,
          "energized": 1,
          "loading_1": 0.0,
          "loading_2": 0.0,
          "loading_3": 0.0,
          "loading": 0.0,
          "p_1": [
            0.0,
            0.0,
            0.0
          ],
          "q_1": [
            0.0,
            0.0,
            0.0
          ],
          "i_1": [
            0.0,
            0.0,
            0.0
          ],
          "s_1": [
            0.0,
            0.0,
            0.0
          ],
          "p_2": [
            0.0,
            0.0,
            0.0
          ],
          "q_2": [
            0.0,
            0.0,
            0.0
          ],
          "i_2": [
            0.0,
            0.0,
            0.0
          ],
          "s_2": [
            0.0,
            0.0,
            0.0
          ],
          "p_3": [
            0.0,
            0.0,
            0.0
          ],
          "q_3": [
            0.0,
            0.0,
            0.0
          ],
          "i_3": [
            0.0,
            0.0,
            0.0
          ],
          "s_3": [
            0.0,
            0.0,
            0.0
          ]
        }
      ]
    },
    {
      "node": [
        {
          "id": 1,
          "energized": 1,
          "u_pu": [
            1.0,
            1.0,
            1.0
          ],
          "u": [
            79674.33714816834,
            79674.33714816834,
            79674.33714816834
          ],
          "u_angle": [
            0.0,
            -2.094395102393195,
            2.094395102393195
          ]
        },
        {
          "id": 2,
          "energized": 1,
          "u_pu": [
            1.04767689,
            1.04767689,
            1.04767689
          ],
          "u": [
            41736.48089298,
            41736.48089298,
            41736.48089298
          ],
          "u_angle": [
            0.523598775598299,
            -1.570796326794897,
            2.617993877991494
          ]
        },
        {
          "id": 3,
          "energized": 1,
          "u_pu": [
            1.04767689,
            1.04767689,
            1.04767689
          ],
          "u": [
            8347.2961786,
            8347.2961786,
            8347.2961786
          ],
          "u_angle": [
            0.523598775598299,
            -1.570796326794897,
            2.617993877991494
          ]
        }
      ],
      "three_winding_transformer": [
        {
          "id": 4,
          "energized": 1,
          "loading_1": 0.0,
          "loading_2": 0.0,
          "loading_3": 0.0,
          "loading": 0.0,
          "p_1": [
            0.0,
            0.0,
            0.0
          ],
          "q_1": [
            0.0,
            0.0,
            0.0
          ],
          "i_1": [
            0.0,
            0.0,
            0.0
          ],
          "s_1": [
            0.0,
            0.0,
            0.0
          ],
          "p_2": [
            0.0,
            0.0,
            0.0
          ],
          "q_2": [
            0.0,
            0.0,
            0.0
          ],
          "i_2": [
            0.0,
            0.0,
            0.0
          ],
          "s_2": [
            0.0,
            0.0,
            0.0
          ],
          "p_3": [
            0.0,
            0.0,
            0.0
          ],
          "q_3": [
            0.0,
            0.0,
            0.0
          ],
          "i_3": [
            0.0,
            0.0,
            0.0
          ],
          "s_3": [
            0.0,
            0.0,
            0.0
          ]
        }
      ]
    },
    {
      "node": [
        {
          "id": 1,
          "energized": 1,
          "u_pu": [
            1.0,
            1.0,
            1.0
          ],
          "u": [
            79674.33714816834,
            79674.33714816834,
            79674.33714816834
          ],
          "u_angle": [
            0.0,
            -2.094395102393195,
            2.094395102393195
          ]
        },
        {
          "id": 2,
          "energized": 1,
          "u_pu": [
            1.0261749,
            1.0261749,
            1.0261749
          ],
          "u": [
            40879.90231427,
            40879.90231427,
            40879.90231427
          ],
          "u_angle": [
            0.523598775598299,
            -1.570796326794897,
            2.617993877991494
          ]
        },
        {
          "id": 3,
          "energized": 1,
          "u_pu": [
            1.0261749,
            1.0261749,
            1.0261749
          ],
          "u": [
            8175.98046285,
            8175.98046285,
            8175.98046285
          ],
          "u_angle": [
            0.523598775598299,
            -1.570796326794897,
            2.617993877991494
          ]
        }
      ],
      "three_winding_transformer": [
        {
          "id": 4,
          "energized": 1,
          "loading_1": 0.0,
          "loading_2": 0.0,
          "loading_3": 0.0,
          "loading": 0.0,
          "p_1": [
            0.0,
            0.0,
            0.0
          ],
          "q_1": [
            0.0,
            0.0,
            0.0
          ],
          "i_1": [
            0.0,
            0.0,
            0.0
          ],
          "s_1": [
            0.0,
            0.0,
            0.0
          ],
          "p_2": [
            0.0,
            0.0,
            0.0
          ],
          "q_2": [
            0.0,
            0.0,
            0.0
          ],
          "i_2": [
            0.0,
            0.0,
            0.0
          ],
          "s_2": [
            0.0,
            0.0,
            0.0
          ],
          "p_3": [
            0.0,
            0.0,
            0.0
          ],
          "q_3": [
            0.0,
            0.0,
            0.0
          ],
          "i_3": [
            0.0,
            0.0,
            0.0
          ],
          "s_3": [
            0.0,
            0.0,
            0.0
          ]
        }
      ]
    },
    {
      "node": [
        {
          "id": 1,
          "energized": 1,
          "u_pu": [
            1.0,
            1.0,
            1.0
          ],
          "u": [
            79674.33714816834,
            79674.33714816834,
            79674.33714816834
          ],
          "u_angle": [
            0.0,
            -2.094395102393195,
            2.094395102393195
          ]
        },
        {
          "id": 2,
          "energized": 1,
          "u_pu": [
            1.00553774,
            1.00553774,
            1.00553774
          ],
          "u": [
            40057.77661923,
            40057.77661923,
            40057.77661923
          ],
          "u_angle": [
            0.523598775598299,
            -1.570796326794897,
            2.617993877991494
          ]
        },
        {
          "id": 3,
          "energized": 1,
          "u_pu": [
            1.00553774,
            1.00553774,
            1.00553774
          ],
          "u": [
            8011.55532385,
            8011.55532385,
            8011.55532385
          ],
          "u_angle": [
            0.523598775598299,
            -1.570796326794897,
            2.617993877991494
          ]
        }
      ],
      "three_winding_transformer": [
        {
          "id": 4,
          "energized": 1,
          "loading_1": 0.0,
          "loading_2": 0.0,
          "loading_3": 0.0,
          "loading": 0.0,
          "p_1": [
            0.0,
            0.0,
            0.0
          ],
          "q_1": [
            0.0,
            0.0,
            0.0
          ],
          "i_1": [
            0.0,
            0.0,
            0.0
          ],
          "s_1": [
            0.0,
            0.0,
            0.0
          ],
          "p_2": [
            0.0,
            0.0,
            0.0
          ],
          "q_2": [
            0.0,
            0.0,
            0.0
          ],
          "i_2": [
            0.0,
            0.0,
            0.0
          ],
          "s_2": [
            0.0,
            0.0,
            0.0
          ],
          "p_3": [
            0.0,
            0.0,
            0.0
          ],
          "q_3": [
            0.0,
            0.0,
            0.0
          ],
          "i_3": [
            0.0,
            0.0,
            0.0
          ],
          "s_3": [
            0.0,
            0.0,
            0.0
          ]
        }
      ]
    },
    {
      "node": [
        {
          "id": 1,
          "energized": 1,
          "u_pu": [
            1.0,
            1.0,
            1.0
          ],
          "u": [
            79674.33714816834,
            79674.33714816834,
            79674.33714816834
          ],
          "u_angle": [
            0.0,
            -2.094395102393195,
            2.094395102393195
          ]
        },
        {
          "id": 2,
          "energized": 1,
          "u_pu": [
            0.98571429,
            0.98571429,
            0.98571429
          ],
          "u": [
            39268.06616588,
            39268.06616588,
            39268.06616588
          ],
          "u_angle": [
            0.523598775598299,
            -1.570796326794897,
            2.617993877991494
          ]
        },
        {
          "id": 3,
          "energized": 1,
          "u_pu": [
            0.98571429,
            0.98571429,
            0.98571429
          ],
          "u": [
            7853.61323318,
            7853.61323318,
            7853.61323318
          ],
          "u_angle": [
            0.523598775598299,
            -1.570796326794897,
            2.617993877991494
          ]
        }
      ],
      "three_winding_transformer": [
        {
          "id": 4,
          "energized": 1,
          "loading_1": 0.0,
          "loading_2": 0.0,
          "loading_3": 0.0,
          "loading": 0.0,
          "p_1": [
            0.0,
            0.0,
            0.0
          ],
          "q_1": [
            0.0,
            0.0,
            0.0
          ],
          "i_1": [
            0.0,
            0.0,
            0.0
          ],
          "s_1": [
            0.0,
            0.0,
            0.0
          ],
          "p_2": [
            0.0,
            0.0,
            0.0
          ],
          "q_2": [
            0.0,
            0.0,
            0.0
          ],
          "i_2": [
            0.0,
            0.0,
            0.0
          ],
          "s_2": [
            0.0,
            0.0,
            0.0
          ],
          "p_3": [
            0.0,
            0.0,
            0.0
          ],
          "q_3": [
            0.0,
            0.0,
            0.0
          ],
          "i_3": [
            0.0,
            0.0,
            0.0
          ],
          "s_3": [
            0.0,
            0.0,
            0.0
          ]
        }
      ]
    },
    {
      "node": [
        {
          "id": 1,
          "energized": 1,
          "u_pu": [
            1.0,
            1.0,
            1.0
          ],
          "u": [
            79674.33714816834,
            79674.33714816834,
            79674.33714816834
          ],
          "u_angle": [
            0.0,
            -2.094395102393195,
            2.094395102393195
          ]
        },
        {
          "id": 2,
          "energized": 1,
          "u_pu": [
            0.96665733,
            0.96665733,
            0.96665733
          ],
          "u": [
            38508.89088837,
            38508.89088837,
            38508.89088837
          ],
          "u_angle": [
            0.523598775598299,
            -1.570796326794897,
            2.617993877991494
          ]
        },
        {
          "id": 3,
          "energized": 1,
          "u_pu": [
            0.96665733,
            0.96665733,
            0.96665733
          ],
          "u": [
            7701.77817767,
            7701.77817767,
            7701.77817767
          ],
          "u_angle": [
            0.523598775598299,
            -1.570796326794897,
            2.617993877991494
          ]
        }
      ],
      "three_winding_transformer": [
        {
          "id": 4,
          "energized": 1,
          "loading_1": 0.0,
          "loading_2": 0.0,
          "loading_3": 0.0,
          "loading": 0.0,
          "p_1": [
            0.0,
            0.0,
            0.0
          ],
          "q_1": [
            0.0,
            0.0,
            0.0
          ],
          "i_1": [
            0.0,
            0.0,
            0.0
          ],
          "s_1": [
            0.0,
            0.0,
            0.0
          ],
          "p_2": [
            0.0,
            0.0,
            0.0
          ],
          "q_2": [
            0.0,
            0.0,
            0.0
          ],
          "i_2": [
            0.0,
            0.0,
            0.0
          ],
          "s_2": [
            0.0,
            0.0,
            0.0
          ],
          "p_3": [
            0.0,
            0.0,
            0.0
          ],
          "q_3": [
            0.0,
            0.0,
            0.0
          ],
          "i_3": [
            0.0,
            0.0,
            0.0
          ],
          "s_3": [
            0.0,
            0.0,
            0.0
          ]
        }
      ]
    },
    {
      "node": [
        {
          "id": 1,
          "energized": 1,
          "u_pu": [
            1.0,
            1.0,
            1.0
          ],
          "u": [
            79674.33714816834,
            79674.33714816834,
            79674.33714816834
          ],
          "u_angle": [
            0.0,
            -2.094395102393195,
            2.094395102393195
          ]
        },
        {
          "id": 2,
          "energized": 1,
          "u_pu": [
            0.94832325,
            0.94832325,
            0.94832325
          ],
          "u": [
            37778.51335365,
            37778.51335365,
            37778.51335365
          ],
          "u_angle": [
            0.523598775598299,
            -1.570796326794897,
            2.617993877991494
          ]
        },
        {
          "id": 3,
          "energized": 1,
          "u_pu": [
            0.94832325,
            0.94832325,
            0.94832325
          ],
          "u": [
            7555.70267073,
            7555.70267073,
            7555.70267073
          ],
          "u_angle": [
            0.523598775598299,
            -1.570796326794897,
            2.617993877991494
          ]
        }
      ],
      "three_winding_transformer": [
        {
          "id": 4,
          "energized": 1,
          "loading_1": 0.0,
          "loading_2": 0.0,
          "loading_3": 0.0,
          "loading": 0.0,
          "p_1": [
            0.0,
            0.0,
            0.0
          ],
          "q_1": [
            0.0,
            0.0,
            0.0
          ],
          "i_1": [
            0.0,
            0.0,
            0.0
          ],
          "s_1": [
            0.0,
            0.0,
            0.0
          ],
          "p_2": [
            0.0,
            0.0,
            0.0
          ],
          "q_2": [
            0.0,
            0.0,
            0.0
          ],
          "i_2": [
            0.0,
            0.0,
            0.0
          ],
          "s_2": [
            0.0,
            0.0,
            0.0
          ],
          "p_3": [
            0.0,
            0.0,
            0.0
          ],
          "q_3": [
            0.0,
            0.0,
            0.0
          ],
          "i_3": [
            0.0,
            0.0,
            0.0
          ],
          "s_3": [
            0.0,
            0.0,
            0.0
          ]
        }
      ]
    },
    {
      "node": [
        {
          "id": 1,
          "energized": 1,
          "u_pu": [
            1.0,
            1.0,
            1.0
          ],
          "u": [
            79674.33714816834,
            79674.33714816834,
            79674.33714816834
          ],
          "u_angle": [
            0.0,
            -2.094395102393195,
            2.094395102393195
          ]
        },
        {
          "id": 2,
          "energized": 1,
          "u_pu": [
            0.9306717,
            0.9306717,
            0.9306717
          ],
          "u": [
            37075.32548708,
            37075.32548708,
            37075.32548708
          ],
          "u_angle": [
            0.523598775598299,
            -1.570796326794897,
            2.617993877991494
          ]
        },
        {
          "id": 3,
          "energized": 1,
          "u_pu": [
            0.9306717,
            0.9306717,
            0.9306717
          ],
          "u": [
            7415.06509742,
            7415.06509742,
            7415.06509742
          ],
          "u_angle": [
            0.523598775598299,
            -1.570796326794897,
            2.617993877991494
          ]
        }
      ],
      "three_winding_transformer": [
        {
          "id": 4,
          "energized": 1,
          "loading_1": 0.0,
          "loading_2": 0.0,
          "loading_3": 0.0,
          "loading": 0.0,
          "p_1": [
            0.0,
            0.0,
            0.0
          ],
          "q_1": [
            0.0,
            0.0,
            0.0
          ],
          "i_1": [
            0.0,
            0.0,
            0.0
          ],
          "s_1": [
            0.0,
            0.0,
            0.0
          ],
          "p_2": [
            0.0,
            0.0,
            0.0
          ],
          "q_2": [
            0.0,
            0.0,
            0.0
          ],
          "i_2": [
            0.0,
            0.0,
            0.0
          ],
          "s_2": [
            0.0,
            0.0,
            0.0
          ],
          "p_3": [
            0.0,
            0.0,
            0.0
          ],
          "q_3": [
            0.0,
            0.0,
            0.0
          ],
          "i_3": [
            0.0,
            0.0,
            0.0
          ],
          "s_3": [
            0.0,
            0.0,
            0.0
          ]
        }
      ]
    },
    {
      "node": [
        {
          "id": 1,
          "energized": 1,
          "u_pu": [
            1.0,
            1.0,
            1.0
          ],
          "u": [
            79674.33714816834,
            79674.33714816834,
            79674.33714816834
          ],
          "u_angle": [
            0.0,
            -2.094395102393195,
            2.094395102393195
          ]
        },
        {
          "id": 2,
          "energized": 1,
          "u_pu": [
            0.91366525,
            0.91366525,
            0.91366525
          ],
          "u": [
            36397.83675333,
            36397.83675333,
            36397.83675333
          ],
          "u_angle": [
            0.523598775598299,
            -1.570796326794897,
            2.617993877991494
          ]
        },
        {
          "id": 3,
          "energized": 1,
          "u_pu": [
            0.91366525,
            0.91366525,
            0.91366525
          ],
          "u": [
            7279.56735067,
            7279.56735067,
            7279.56735067
          ],
          "u_angle": [
            0.523598775598299,
            -1.570796326794897,
            2.617993877991494
          ]
        }
      ],
      "three_winding_transformer": [
        {
          "id": 4,
          "energized": 1,
          "loading_1": 0.0,
          "loading_2": 0.0,
          "loading_3": 0.0,
          "loading": 0.0,
          "p_1": [
            0.0,
            0.0,
            0.0
          ],
          "q_1": [
            0.0,
            0.0,
            0.0
          ],
          "i_1": [
            0.0,
            0.0,
            0.0
          ],
          "s_1": [
            0.0,
            0.0,
            0.0
          ],
          "p_2": [
            0.0,
            0.0,
            0.0
          ],
          "q_2": [
            0.0,
            0.0,
            0.0
          ],
          "i_2": [
            0.0,
            0.0,
            0.0
          ],
          "s_2": [
            0.0,
            0.0,
            0.0
          ],
          "p_3": [
            0.0,
            0.0,
            0.0
          ],
          "q_3": [
            0.0,
            0.0,
            0.0
          ],
          "i_3": [
            0.0,
            0.0,
            0.0
          ],
          "s_3": [
            0.0,
            0.0,
            0.0
          ]
        }
      ]
    },
    {
      "node": [
        {
          "id": 1,
          "energized": 1,
          "u_pu": [
            1.0,
            1.0,
            1.0
          ],
          "u": [
            79674.33714816834,
            79674.33714816834,
            79674.33714816834
          ],
          "u_angle": [
            0.0,
            -2.094395102393195,
            2.094395102393195
          ]
        },
        {
          "id": 2,
          "energized": 1,
          "u_pu": [
            0.89726918,
            0.89726918,
            0.89726918
          ],
          "u": [
            35744.66361004,
            35744.66361004,
            35744.66361004
          ],
          "u_angle": [
            0.523598775598299,
            -1.570796326794897,
            2.617993877991494
          ]
        },
        {
          "id": 3,
          "energized": 1,
          "u_pu": [
            0.89726918,
            0.89726918,
            0.89726918
          ],
          "u": [
            7148.93272201,
            7148.93272201,
            7148.93272201
          ],
          "u_angle": [
            0.523598775598299,
            -1.570796326794897,
            2.617993877991494
          ]
        }
      ],
      "three_winding_transformer": [
        {
          "id": 4,
          "energized": 1,
          "loading_1": 0.0,
          "loading_2": 0.0,
          "loading_3": 0.0,
          "loading": 0.0,
          "p_1": [
            0.0,
            0.0,
            0.0
          ],
          "q_1": [
            0.0,
            0.0,
            0.0
          ],
          "i_1": [
            0.0,
            0.0,
            0.0
          ],
          "s_1": [
            0.0,
            0.0,
            0.0
          ],
          "p_2": [
            0.0,
            0.0,
            0.0
          ],
          "q_2": [
            0.0,
            0.0,
            0.0
          ],
          "i_2": [
            0.0,
            0.0,
            0.0
          ],
          "s_2": [
            0.0,
            0.0,
            0.0
          ],
          "p_3": [
            0.0,
            0.0,
            0.0
          ],
          "q_3": [
            0.0,
            0.0,
            0.0
          ],
          "i_3": [
            0.0,
            0.0,
            0.0
          ],
          "s_3": [
            0.0,
            0.0,
            0.0
          ]
        }
      ]
    }
  ]
}
